*SPEF "IEEE 1481.1999"
*DESIGN "PPA_adder"
*DATE "18:55:31 Monday June 15, 2020"
*VENDOR "unknown"
*PROGRAM "qrouter"
*VERSION "unknown"
*DESIGN_FLOW "qflow"
*DIVIDER /
*DELIMITER :
*BUS_DELIMITER <>
*T_UNIT 1 PS
*C_UNIT 1 FF
*R_UNIT 1 OHM
*L_UNIT 1 HENRY

*NAME_MAP
*1 S4_c
*2 NAND2X1_14
*3 NAND2X1_1
*4 AND2X2_6
*5 NOR2X1_9
*6 NAND2X1_3
*7 S2_c
*8 NAND2X1_10
*9 NAND2X1_13
*10 AND2X2_4
*11 NAND2X1_11
*12 NOR2X1_5
*13 g4
*14 AND2X2_12
*15 INVX1_1
*16 NAND2X1_5
*17 NOR2X1_22
*18 c_in
*19 NAND2X1_7
*20 NOR2X1_1
*21 AND2X2_2
*22 Carry_in_g0_new
*23 NAND2X1_8
*24 NAND2X1_9
*25 NOR2X1_3
*26 AND2X2_3
*27 g2
*28 AND2X2_10
*29 NOR2X1_18
*30 INVX1_12
*31 NAND2X1_15
*32 gen4_p
*33 INVX1_9
*34 AND2X2_1
*35 NAND2X1_1
*36 S5_c
*37 NAND2X1_2
*38 NOR2X1_11
*39 AND2X2_7
*40 g5
*41 AND2X2_13
*42 NOR2X1_24
*43 INVX1_3
*44 gen5_p
*45 INVX1_10
*46 NAND2X1_5
*47 AND2X2_1
*48 Carry_in_g0
*49 AND2X2_8
*50 NOR2X1_14
*51 INVX1_4
*52 S0_h
*53 NOR2X1_14
*54 AND2X2_2
*55 NOR2X1_1
*56 S1_h
*57 NOR2X1_16
*58 NOR2X1_3
*59 AND2X2_3
*60 S2_h
*61 NOR2X1_18
*62 AND2X2_4
*63 NOR2X1_5
*64 S3_c
*65 NAND2X1_12
*66 AND2X2_5
*67 NOR2X1_7
*68 S3_h
*69 NOR2X1_20
*70 NOR2X1_7
*71 AND2X2_5
*72 S4_h
*73 NOR2X1_22
*74 AND2X2_6
*75 NOR2X1_9
*76 S5_h
*77 NOR2X1_24
*78 AND2X2_7
*79 NOR2X1_11
*80 sum_comp_2[0]
*81 AND2X2_8
*82 NOR2X1_13
*83 sum_comp_1[0]
*84 NOR2X1_13
*85 AND2X2_8
*86 _15_
*87 NOR2X1_13
*88 NOR2X1_14
*89 INVX1_5
*90 sum_comp_2[1]
*91 AND2X2_9
*92 NOR2X1_15
*93 sum_comp_1[1]
*94 NOR2X1_15
*95 AND2X2_9
*96 g1
*97 AND2X2_9
*98 NOR2X1_16
*99 INVX1_11
*100 _16_
*101 NOR2X1_15
*102 NOR2X1_16
*103 INVX1_6
*104 sum_comp_2[2]
*105 NOR2X1_17
*106 AND2X2_10
*107 sum_comp_1[2]
*108 AND2X2_10
*109 NOR2X1_17
*110 _17_
*111 NOR2X1_17
*112 INVX1_7
*113 NOR2X1_18
*114 gen2_p
*115 INVX1_7
*116 NAND2X1_11
*117 AND2X2_14
*118 sum_comp_2[3]
*119 NOR2X1_19
*120 AND2X2_11
*121 sum_comp_1[3]
*122 AND2X2_11
*123 NOR2X1_19
*124 g3
*125 AND2X2_11
*126 NOR2X1_20
*127 INVX1_14
*128 _18_
*129 NOR2X1_19
*130 NOR2X1_20
*131 INVX1_8
*132 gen3_p
*133 INVX1_8
*134 NAND2X1_15
*135 AND2X2_14
*136 sum_comp_2[4]
*137 AND2X2_12
*138 NOR2X1_21
*139 sum_comp_1[4]
*140 NOR2X1_21
*141 AND2X2_12
*142 _19_
*143 NOR2X1_21
*144 NOR2X1_22
*145 INVX1_9
*146 sum_comp_2[5]
*147 AND2X2_13
*148 NOR2X1_23
*149 sum_comp_1[5]
*150 AND2X2_13
*151 NOR2X1_23
*152 _20_
*153 NOR2X1_23
*154 NOR2X1_24
*155 INVX1_10
*156 _29_
*157 INVX1_1
*158 NAND2X1_2
*159 _30_
*160 NAND2X1_1
*161 NAND2X1_2
*162 g_5_4
*163 NAND2X1_6
*164 INVX1_2
*165 _31_
*166 INVX1_2
*167 NAND2X1_4
*168 mod_5_0_p1
*169 AND2X2_1
*170 NAND2X1_3
*171 _32_
*172 NAND2X1_3
*173 NAND2X1_4
*174 _0_
*175 NAND2X1_4
*176 BUFX2_6
*177 _33_
*178 INVX1_3
*179 NAND2X1_6
*180 _34_
*181 NAND2X1_5
*182 NAND2X1_6
*183 S1_s
*184 NOR2X1_4
*185 BUFX2_1
*186 result[1]
*187 BUFX2_1
*188 S2_s
*189 NOR2X1_6
*190 BUFX2_2
*191 result[2]
*192 BUFX2_2
*193 S3_s
*194 NOR2X1_8
*195 BUFX2_3
*196 result[3]
*197 BUFX2_3
*198 S4_s
*199 NOR2X1_10
*200 BUFX2_4
*201 result[4]
*202 BUFX2_4
*203 S5_s
*204 NOR2X1_12
*205 BUFX2_5
*206 result[5]
*207 BUFX2_5
*208 c_out
*209 BUFX2_6
*210 S0_s
*211 NOR2X1_2
*212 BUFX2_7
*213 result[0]
*214 BUFX2_7
*215 _1_
*216 INVX1_4
*217 NAND2X1_8
*218 Carry_in_p0
*219 INVX1_5
*220 NAND2X1_7
*221 _2_
*222 NAND2X1_7
*223 NAND2X1_8
*224 _3_
*225 NOR2X1_1
*226 NOR2X1_2
*227 _4_
*228 AND2X2_2
*229 NOR2X1_2
*230 _5_
*231 NOR2X1_3
*232 NOR2X1_4
*233 _6_
*234 AND2X2_3
*235 NOR2X1_4
*236 _7_
*237 NOR2X1_5
*238 NOR2X1_6
*239 _8_
*240 AND2X2_4
*241 NOR2X1_6
*242 _9_
*243 NOR2X1_7
*244 NOR2X1_8
*245 _10_
*246 AND2X2_5
*247 NOR2X1_8
*248 _11_
*249 NOR2X1_9
*250 NOR2X1_10
*251 _12_
*252 AND2X2_6
*253 NOR2X1_10
*254 _13_
*255 NOR2X1_11
*256 NOR2X1_12
*257 _14_
*258 AND2X2_7
*259 NOR2X1_12
*260 gen1_p
*261 INVX1_6
*262 NAND2X1_9
*263 _21_
*264 INVX1_11
*265 NAND2X1_10
*266 _22_
*267 NAND2X1_9
*268 NAND2X1_10
*269 _23_
*270 INVX1_12
*271 NAND2X1_12
*272 _24_
*273 NAND2X1_11
*274 NAND2X1_12
*275 g_3_2
*276 NAND2X1_16
*277 INVX1_13
*278 _25_
*279 INVX1_13
*280 NAND2X1_14
*281 mod_3_0_p1
*282 AND2X2_14
*283 NAND2X1_13
*284 _26_
*285 NAND2X1_13
*286 NAND2X1_14
*287 _27_
*288 INVX1_14
*289 NAND2X1_16
*290 _28_
*291 NAND2X1_15
*292 NAND2X1_16

*PORTS
*18 I
*80 I
*83 I
*90 I
*93 I
*104 I
*107 I
*118 I
*121 I
*136 I
*139 I
*146 I
*149 I
*186 O
*191 O
*196 O
*201 O
*206 O
*208 O
*213 O

*D_NET *1 0.0003576
*CONN
*I *2:Y O *D NAND2X1
*I *3:A I *L 0.0177118
*I *4:A I *L 0.0180033
*I *5:A I *L 0.0222369
*I *6:A I *L 0.0177118
*CAP
1 1_1 8.64e-05
2 1_2 2.04e-05
3 1_3 0.0001428
4 1_4 4.08e-05
5 1_5 2.688e-05
6 1_6 4.032e-05
*RES
1 *2:Y 1_1 0.56
2 1_1 *3:A 0
3 1_1 1_2 0.233333
4 1_2 1_3 1.63333
5 1_3 1_4 0.466667
6 1_4 *4:A 0
7 1_3 1_5 0.746667
8 1_5 *5:A 0
9 1_2 1_6 1.12
10 1_6 *6:A 0
*END
*D_NET *7 0.00055464
*CONN
*I *8:Y O *D NAND2X1
*I *9:A I *L 0.0177118
*I *10:A I *L 0.0180033
*I *11:A I *L 0.0177118
*I *12:A I *L 0.0222369
*CAP
1 7_1 8.64e-05
2 7_2 0.00017616
3 7_3 4.704e-05
4 7_4 0
5 7_5 0.00019584
6 7_6 4.92e-05
*RES
1 *8:Y 7_1 0.56
2 7_1 *9:A 0
3 7_1 7_2 2.89333
4 7_2 7_3 1.30667
5 7_3 7_4 0
6 7_4 *10:A 0
7 7_4 7_5 2.24
8 7_5 *11:A 0
9 7_2 7_6 0.7
10 7_6 *12:A 0
*END
*D_NET *13 0.00039384
*CONN
*I *14:Y O *D AND2X2
*I *15:A I *L 0.0134094
*I *16:A I *L 0.0177118
*I *17:B I *L 0.0227534
*CAP
1 13_1 0
2 13_2 0.00012888
3 13_3 0.0001296
4 13_4 0.00013536
*RES
1 *14:Y 13_1 0
2 13_1 13_2 1.91333
3 13_2 *15:A 0
4 13_2 13_3 0.84
5 13_3 *16:A 0
6 13_1 13_4 2.42667
7 13_4 *17:B 0
*END
*D_NET *18 0.00037008
*CONN
*P *18 O
*I *19:B I *L 0.0180112
*I *20:A I *L 0.0222369
*I *21:A I *L 0.0180033
*CAP
1 18_1 0.0001224
2 18_2 2.04e-05
3 18_3 0.00012888
4 18_4 4.08e-05
5 18_5 5.76e-05
*RES
1 *18 18_1 1.4
2 18_1 18_2 0.233333
3 18_2 *19:B 0
4 18_2 18_3 1.91333
5 18_3 18_4 0.466667
6 18_4 *20:A 0
7 18_3 18_5 0.373333
8 18_5 *21:A 0
*END
*D_NET *22 0.0004008
*CONN
*I *23:Y O *D NAND2X1
*I *24:A I *L 0.0177118
*I *25:A I *L 0.0222369
*I *26:A I *L 0.0180033
*CAP
1 22_1 9.48e-05
2 22_2 2.016e-05
3 22_3 0.00010104
4 22_4 4.08e-05
5 22_5 0.000144
*RES
1 *23:Y 22_1 0.793333
2 22_1 22_2 0.56
3 22_2 *24:A 0
4 22_1 22_3 2.47333
5 22_3 22_4 0.466667
6 22_4 *25:A 0
7 22_3 22_5 0.933333
8 22_5 *26:A 0
*END
*D_NET *27 0.00039432
*CONN
*I *28:Y O *D AND2X2
*I *29:B I *L 0.0227534
*I *30:A I *L 0.0134094
*I *31:A I *L 0.0177118
*CAP
1 27_1 6.6e-05
2 27_2 2.016e-05
3 27_3 0.0001932
4 27_4 2.04e-05
5 27_5 9.456e-05
*RES
1 *28:Y 27_1 0.606667
2 27_1 27_2 0.56
3 27_2 *29:B 0
4 27_1 27_3 3.03333
5 27_3 27_4 0.233333
6 27_4 *30:A 0
7 27_4 27_5 1.96
8 27_5 *31:A 0
*END
*D_NET *32 0.00018432
*CONN
*I *33:Y O *D INVX1
*I *34:B I *L 0.0177358
*I *35:B I *L 0.0180112
*CAP
1 32_1 0.00012672
2 32_2 5.76e-05
*RES
1 *33:Y 32_1 1.68
2 32_1 *34:B 0
3 32_1 32_2 0.373333
4 32_2 *35:B 0
*END
*D_NET *36 0.00033864
*CONN
*I *37:Y O *D NAND2X1
*I *38:A I *L 0.0222369
*I *39:A I *L 0.0180033
*CAP
1 36_1 8.736e-05
2 36_2 0.000102
3 36_3 0.00014928
*RES
1 *37:Y 36_1 2.42667
2 36_1 36_2 1.16667
3 36_2 *38:A 0
4 36_1 36_3 2.14667
5 36_3 *39:A 0
*END
*D_NET *40 0.0001524
*CONN
*I *41:Y O *D AND2X2
*I *42:B I *L 0.0227534
*I *43:A I *L 0.0134094
*CAP
1 40_1 3.36e-05
2 40_2 5.76e-05
3 40_3 6.12e-05
*RES
1 *41:Y 40_1 0.933333
2 40_1 40_2 0.373333
3 40_2 *42:B 0
4 40_1 40_3 0.7
5 40_3 *43:A 0
*END
*D_NET *44 0.00031944
*CONN
*I *45:Y O *D INVX1
*I *46:B I *L 0.0180112
*I *47:A I *L 0.0180033
*CAP
1 44_1 3.36e-05
2 44_2 0.0001236
3 44_3 0.00016224
*RES
1 *45:Y 44_1 0.933333
2 44_1 44_2 0.98
3 44_2 *46:B 0
4 44_1 44_3 3.17333
5 44_3 *47:A 0
*END
*D_NET *48 0.00037608
*CONN
*I *49:Y O *D AND2X2
*I *50:B I *L 0.0227534
*I *51:A I *L 0.0134094
*CAP
1 48_1 6.768e-05
2 48_2 4.08e-05
3 48_3 0.0002676
*RES
1 *49:Y 48_1 1.21333
2 48_1 48_2 0.466667
3 48_2 *50:B 0
4 48_1 48_3 3.87333
5 48_3 *51:A 0
*END
*D_NET *52 0.00019752
*CONN
*I *53:Y O *D NOR2X1
*I *54:B I *L 0.0177358
*I *55:B I *L 0.0227534
*CAP
1 52_1 7.392e-05
2 52_2 7.44e-05
3 52_3 4.92e-05
*RES
1 *53:Y 52_1 2.05333
2 52_1 52_2 1.4
3 52_2 *54:B 0
4 52_1 52_3 0.7
5 52_3 *55:B 0
*END
*D_NET *56 0.00014016
*CONN
*I *57:Y O *D NOR2X1
*I *58:B I *L 0.0227534
*I *59:B I *L 0.0177358
*CAP
1 56_1 8.64e-05
2 56_2 5.376e-05
*RES
1 *57:Y 56_1 0.56
2 56_1 *58:B 0
3 56_1 56_2 1.49333
4 56_2 *59:B 0
*END
*D_NET *60 0.00017832
*CONN
*I *61:Y O *D NOR2X1
*I *62:B I *L 0.0177358
*I *63:B I *L 0.0227534
*CAP
1 60_1 0.00015144
2 60_2 0
3 60_3 2.688e-05
*RES
1 *61:Y 60_1 1.44667
2 60_1 60_2 0
3 60_2 *62:B 0
4 60_2 60_3 0.746667
5 60_3 *63:B 0
*END
*D_NET *64 0.00042672
*CONN
*I *65:Y O *D NAND2X1
*I *66:A I *L 0.0180033
*I *67:A I *L 0.0222369
*CAP
1 64_1 0.00033864
2 64_2 6.768e-05
3 64_3 2.04e-05
*RES
1 *65:Y 64_1 3.87333
2 64_1 64_2 1.21333
3 64_2 *66:A 0
4 64_1 64_3 0.233333
5 64_3 *67:A 0
*END
*D_NET *68 0.00018336
*CONN
*I *69:Y O *D NOR2X1
*I *70:B I *L 0.0227534
*I *71:B I *L 0.0177358
*CAP
1 68_1 0.0001428
2 68_2 2.04e-05
3 68_3 2.016e-05
*RES
1 *69:Y 68_1 1.63333
2 68_1 68_2 0.233333
3 68_2 *70:B 0
4 68_2 68_3 0.56
5 68_3 *71:B 0
*END
*D_NET *72 6.216e-05
*CONN
*I *73:Y O *D NOR2X1
*I *74:B I *L 0.0177358
*I *75:B I *L 0.0227534
*CAP
1 72_1 3.36e-05
2 72_2 2.016e-05
3 72_3 8.4e-06
*RES
1 *73:Y 72_1 0.933333
2 72_1 72_2 0.56
3 72_2 *74:B 0
4 72_1 72_3 0.233333
5 72_3 *75:B 0
*END
*D_NET *76 0.00018312
*CONN
*I *77:Y O *D NOR2X1
*I *78:B I *L 0.0177358
*I *79:B I *L 0.0227534
*CAP
1 76_1 0.00016296
2 76_2 0
3 76_3 2.016e-05
*RES
1 *77:Y 76_1 2.19333
2 76_1 76_2 0
3 76_2 *78:B 0
4 76_1 76_3 0.56
5 76_3 *79:B 0
*END
*D_NET *80 0.00033336
*CONN
*P *80 O
*I *81:A I *L 0.0180033
*I *82:A I *L 0.0222369
*CAP
1 80_1 0.00020376
2 80_2 0.0001296
*RES
1 *80 80_1 2.66
2 80_1 *81:A 0
3 80_1 80_2 0.84
4 80_2 *82:A 0
*END
*D_NET *83 0.00020352
*CONN
*P *83 O
*I *84:B I *L 0.0227534
*I *85:B I *L 0.0177358
*CAP
1 83_1 0.0001632
2 83_2 1.344e-05
3 83_3 2.688e-05
*RES
1 *83 83_1 1.86667
2 83_1 83_2 0.373333
3 83_2 *84:B 0
4 83_1 83_3 0.746667
5 83_3 *85:B 0
*END
*D_NET *86 9.408e-05
*CONN
*I *87:Y O *D NOR2X1
*I *88:A I *L 0.0222369
*I *89:A I *L 0.0134094
*CAP
1 86_1 4.704e-05
2 86_2 0
3 86_3 4.704e-05
*RES
1 *87:Y 86_1 1.30667
2 86_1 86_2 0
3 86_2 *88:A 0
4 86_1 86_3 1.30667
5 86_3 *89:A 0
*END
*D_NET *90 0.00031848
*CONN
*P *90 O
*I *91:A I *L 0.0180033
*I *92:A I *L 0.0222369
*CAP
1 90_1 2.016e-05
2 90_2 0.0001968
3 90_3 0.00010152
*RES
1 *90 90_1 0.56
2 90_1 90_2 1.96
3 90_2 *91:A 0
4 90_1 90_3 1.82
5 90_3 *92:A 0
*END
*D_NET *93 0.00026472
*CONN
*P *93 O
*I *94:B I *L 0.0227534
*I *95:B I *L 0.0177358
*CAP
1 93_1 4.032e-05
2 93_2 2.04e-05
3 93_3 0.000204
*RES
1 *93 93_1 1.12
2 93_1 93_2 0.233333
3 93_2 *94:B 0
4 93_2 93_3 2.33333
5 93_3 *95:B 0
*END
*D_NET *96 0.00051744
*CONN
*I *97:Y O *D AND2X2
*I *98:B I *L 0.0227534
*I *99:A I *L 0.0134094
*CAP
1 96_1 0.00014112
2 96_2 0.0002004
3 96_3 0.00017592
*RES
1 *97:Y 96_1 3.92
2 96_1 96_2 2.00667
3 96_2 *98:B 0
4 96_1 96_3 3.22
5 96_3 *99:A 0
*END
*D_NET *100 0.00018816
*CONN
*I *101:Y O *D NOR2X1
*I *102:A I *L 0.0222369
*I *103:A I *L 0.0134094
*CAP
1 100_1 0.00012768
2 100_2 0
3 100_3 6.048e-05
*RES
1 *101:Y 100_1 3.54667
2 100_1 100_2 0
3 100_2 *102:A 0
4 100_1 100_3 1.68
5 100_3 *103:A 0
*END
*D_NET *104 0.0001632
*CONN
*P *104 O
*I *105:A I *L 0.0222369
*I *106:A I *L 0.0180033
*CAP
1 104_1 3.36e-05
2 104_2 0.0001296
*RES
1 *104 104_1 0.933333
2 104_1 *105:A 0
3 104_1 104_2 0.84
4 104_2 *106:A 0
*END
*D_NET *107 5.376e-05
*CONN
*P *107 O
*I *108:B I *L 0.0177358
*I *109:B I *L 0.0227534
*CAP
1 107_1 2.016e-05
2 107_2 3.36e-05
3 107_3 0
*RES
1 *107 107_1 0.56
2 107_1 107_2 0.933333
3 107_2 *108:B 0
4 107_1 107_3 0
5 107_3 *109:B 0
*END
*D_NET *110 0.00029496
*CONN
*I *111:Y O *D NOR2X1
*I *112:A I *L 0.0134094
*I *113:A I *L 0.0222369
*CAP
1 110_1 9.84e-05
2 110_2 0.000102
3 110_3 9.456e-05
*RES
1 *111:Y 110_1 0.84
2 110_1 110_2 1.16667
3 110_2 *112:A 0
4 110_1 110_3 1.96
5 110_3 *113:A 0
*END
*D_NET *114 0.0001416
*CONN
*I *115:Y O *D INVX1
*I *116:B I *L 0.0180112
*I *117:B I *L 0.0177358
*CAP
1 114_1 4.704e-05
2 114_2 0
3 114_3 9.456e-05
*RES
1 *115:Y 114_1 1.30667
2 114_1 114_2 0
3 114_2 *116:B 0
4 114_1 114_3 1.96
5 114_3 *117:B 0
*END
*D_NET *118 0.0001992
*CONN
*P *118 O
*I *119:A I *L 0.0222369
*I *120:A I *L 0.0180033
*CAP
1 118_1 3.36e-05
2 118_2 7.2e-05
3 118_3 9.36e-05
*RES
1 *118 118_1 0.933333
2 118_1 118_2 0.466667
3 118_2 *119:A 0
4 118_1 118_3 0.606667
5 118_3 *120:A 0
*END
*D_NET *121 0.00013536
*CONN
*P *121 O
*I *122:B I *L 0.0177358
*I *123:B I *L 0.0227534
*CAP
1 121_1 2.016e-05
2 121_2 7.44e-05
3 121_3 4.08e-05
*RES
1 *121 121_1 0.56
2 121_1 121_2 1.4
3 121_2 *122:B 0
4 121_1 121_3 0.466667
5 121_3 *123:B 0
*END
*D_NET *124 0.00017952
*CONN
*I *125:Y O *D AND2X2
*I *126:B I *L 0.0227534
*I *127:A I *L 0.0134094
*CAP
1 124_1 5.76e-05
2 124_2 0.00012192
*RES
1 *125:Y 124_1 0.373333
2 124_1 *126:B 0
3 124_1 124_2 2.05333
4 124_2 *127:A 0
*END
*D_NET *128 0.00011808
*CONN
*I *129:Y O *D NOR2X1
*I *130:A I *L 0.0222369
*I *131:A I *L 0.0134094
*CAP
1 128_1 6.048e-05
2 128_2 5.76e-05
*RES
1 *129:Y 128_1 1.68
2 128_1 *130:A 0
3 128_1 128_2 0.373333
4 128_2 *131:A 0
*END
*D_NET *132 0.00031464
*CONN
*I *133:Y O *D INVX1
*I *134:B I *L 0.0180112
*I *135:A I *L 0.0180033
*CAP
1 132_1 0.00017544
2 132_2 2.04e-05
3 132_3 0.0001188
*RES
1 *133:Y 132_1 2.00667
2 132_1 132_2 0.233333
3 132_2 *134:B 0
4 132_2 132_3 1.07333
5 132_3 *135:A 0
*END
*D_NET *136 0.0002928
*CONN
*P *136 O
*I *137:A I *L 0.0180033
*I *138:A I *L 0.0222369
*CAP
1 136_1 0.0001632
2 136_2 0.0001296
*RES
1 *136 136_1 1.86667
2 136_1 *137:A 0
3 136_1 136_2 0.84
4 136_2 *138:A 0
*END
*D_NET *139 0.00020352
*CONN
*P *139 O
*I *140:B I *L 0.0227534
*I *141:B I *L 0.0177358
*CAP
1 139_1 0.0001632
2 139_2 1.344e-05
3 139_3 2.688e-05
*RES
1 *139 139_1 1.86667
2 139_1 139_2 0.373333
3 139_2 *140:B 0
4 139_1 139_3 0.746667
5 139_3 *141:B 0
*END
*D_NET *142 0.00020688
*CONN
*I *143:Y O *D NOR2X1
*I *144:A I *L 0.0222369
*I *145:A I *L 0.0134094
*CAP
1 142_1 8.448e-05
2 142_2 0
3 142_3 0.0001224
*RES
1 *143:Y 142_1 1.12
2 142_1 142_2 0
3 142_2 *144:A 0
4 142_2 142_3 1.4
5 142_3 *145:A 0
*END
*D_NET *146 0.00041232
*CONN
*P *146 O
*I *147:A I *L 0.0180033
*I *148:A I *L 0.0222369
*CAP
1 146_1 2.016e-05
2 146_2 0.0001068
3 146_3 0.00028536
*RES
1 *146 146_1 0.56
2 146_1 146_2 1.07333
3 146_2 *147:A 0
4 146_1 146_3 3.59333
5 146_3 *148:A 0
*END
*D_NET *149 0.00026352
*CONN
*P *149 O
*I *150:B I *L 0.0177358
*I *151:B I *L 0.0227534
*CAP
1 149_1 9.696e-05
2 149_2 0.00012576
3 149_3 4.08e-05
*RES
1 *149 149_1 1.09333
2 149_1 149_2 1.29333
3 149_2 *150:B 0
4 149_1 149_3 0.466667
5 149_3 *151:B 0
*END
*D_NET *152 0.00027792
*CONN
*I *153:Y O *D NOR2X1
*I *154:A I *L 0.0222369
*I *155:A I *L 0.0134094
*CAP
1 152_1 0.0002376
2 152_2 0
3 152_3 4.032e-05
*RES
1 *153:Y 152_1 3.26667
2 152_1 152_2 0
3 152_2 *154:A 0
4 152_1 152_3 1.12
5 152_3 *155:A 0
*END
*D_NET *156 5.76e-05
*CONN
*I *157:Y O *D INVX1
*I *158:A I *L 0.0177118
*CAP
1 156_1 5.76e-05
*RES
1 *157:Y 156_1 0.373333
2 156_1 *158:A 0
*END
*D_NET *159 8.064e-05
*CONN
*I *160:Y O *D NAND2X1
*I *161:B I *L 0.0180112
*CAP
1 159_1 8.064e-05
*RES
1 *160:Y 159_1 2.24
2 159_1 *161:B 0
*END
*D_NET *162 0.0001224
*CONN
*I *163:Y O *D NAND2X1
*I *164:A I *L 0.0134094
*CAP
1 162_1 0.0001224
*RES
1 *163:Y 162_1 1.4
2 162_1 *164:A 0
*END
*D_NET *165 0.0001488
*CONN
*I *166:Y O *D INVX1
*I *167:A I *L 0.0177118
*CAP
1 165_1 0.0001488
*RES
1 *166:Y 165_1 1.68
2 165_1 *167:A 0
*END
*D_NET *168 5.76e-05
*CONN
*I *169:Y O *D AND2X2
*I *170:B I *L 0.0180112
*CAP
1 168_1 5.76e-05
*RES
1 *169:Y 168_1 0.373333
2 168_1 *170:B 0
*END
*D_NET *171 0.00023736
*CONN
*I *172:Y O *D NAND2X1
*I *173:B I *L 0.0180112
*CAP
1 171_1 0.00023736
*RES
1 *172:Y 171_1 3.59333
2 171_1 *173:B 0
*END
*D_NET *174 8.64e-05
*CONN
*I *175:Y O *D NAND2X1
*I *176:A I *L 0.0134147
*CAP
1 174_1 8.64e-05
*RES
1 *175:Y 174_1 0.56
2 174_1 *176:A 0
*END
*D_NET *177 7.776e-05
*CONN
*I *178:Y O *D INVX1
*I *179:A I *L 0.0177118
*CAP
1 177_1 7.776e-05
*RES
1 *178:Y 177_1 0.933333
2 177_1 *179:A 0
*END
*D_NET *180 0.0002448
*CONN
*I *181:Y O *D NAND2X1
*I *182:B I *L 0.0180112
*CAP
1 180_1 0.0002448
*RES
1 *181:Y 180_1 1.58667
2 180_1 *182:B 0
*END
*D_NET *183 0.00013104
*CONN
*I *184:Y O *D NOR2X1
*I *185:A I *L 0.0134147
*CAP
1 183_1 0.00013104
*RES
1 *184:Y 183_1 1.21333
2 183_1 *185:A 0
*END
*D_NET *186 8.4e-05
*CONN
*I *187:Y O *D BUFX2
*P *186 I
*CAP
1 186_1 8.4e-05
*RES
1 *187:Y 186_1 2.33333
2 186_1 *186 0
*END
*D_NET *188 8.64e-05
*CONN
*I *189:Y O *D NOR2X1
*I *190:A I *L 0.0134147
*CAP
1 188_1 8.64e-05
*RES
1 *189:Y 188_1 0.56
2 188_1 *190:A 0
*END
*D_NET *191 0.00011424
*CONN
*I *192:Y O *D BUFX2
*P *191 I
*CAP
1 191_1 0.00011424
*RES
1 *192:Y 191_1 1.30667
2 191_1 *191 0
*END
*D_NET *193 8.64e-05
*CONN
*I *194:Y O *D NOR2X1
*I *195:A I *L 0.0134147
*CAP
1 193_1 8.64e-05
*RES
1 *194:Y 193_1 0.56
2 193_1 *195:A 0
*END
*D_NET *196 6.096e-05
*CONN
*I *197:Y O *D BUFX2
*P *196 I
*CAP
1 196_1 6.096e-05
*RES
1 *197:Y 196_1 1.02667
2 196_1 *196 0
*END
*D_NET *198 0.0001728
*CONN
*I *199:Y O *D NOR2X1
*I *200:A I *L 0.0134147
*CAP
1 198_1 0.0001728
*RES
1 *199:Y 198_1 1.12
2 198_1 *200:A 0
*END
*D_NET *201 0.00011424
*CONN
*I *202:Y O *D BUFX2
*P *201 I
*CAP
1 201_1 0.00011424
*RES
1 *202:Y 201_1 1.30667
2 201_1 *201 0
*END
*D_NET *203 8.64e-05
*CONN
*I *204:Y O *D NOR2X1
*I *205:A I *L 0.0134147
*CAP
1 203_1 8.64e-05
*RES
1 *204:Y 203_1 0.56
2 203_1 *205:A 0
*END
*D_NET *206 6.096e-05
*CONN
*I *207:Y O *D BUFX2
*P *206 I
*CAP
1 206_1 6.096e-05
*RES
1 *207:Y 206_1 1.02667
2 206_1 *206 0
*END
*D_NET *208 0.0001968
*CONN
*I *209:Y O *D BUFX2
*P *208 I
*CAP
1 208_1 0.0001968
*RES
1 *209:Y 208_1 1.68
2 208_1 *208 0
*END
*D_NET *210 9.384e-05
*CONN
*I *211:Y O *D NOR2X1
*I *212:A I *L 0.0134147
*CAP
1 210_1 9.384e-05
*RES
1 *211:Y 210_1 1.07333
2 210_1 *212:A 0
*END
*D_NET *213 0.00011424
*CONN
*I *214:Y O *D BUFX2
*P *213 I
*CAP
1 213_1 0.00011424
*RES
1 *214:Y 213_1 1.30667
2 213_1 *213 0
*END
*D_NET *215 5.76e-05
*CONN
*I *216:Y O *D INVX1
*I *217:A I *L 0.0177118
*CAP
1 215_1 5.76e-05
*RES
1 *216:Y 215_1 0.373333
2 215_1 *217:A 0
*END
*D_NET *218 5.76e-05
*CONN
*I *219:Y O *D INVX1
*I *220:A I *L 0.0177118
*CAP
1 218_1 5.76e-05
*RES
1 *219:Y 218_1 0.373333
2 218_1 *220:A 0
*END
*D_NET *221 0.00021024
*CONN
*I *222:Y O *D NAND2X1
*I *223:B I *L 0.0180112
*CAP
1 221_1 0.00021024
*RES
1 *222:Y 221_1 3.17333
2 221_1 *223:B 0
*END
*D_NET *224 4.704e-05
*CONN
*I *225:Y O *D NOR2X1
*I *226:A I *L 0.0222369
*CAP
1 224_1 4.704e-05
*RES
1 *225:Y 224_1 1.30667
2 224_1 *226:A 0
*END
*D_NET *227 7.776e-05
*CONN
*I *228:Y O *D AND2X2
*I *229:B I *L 0.0227534
*CAP
1 227_1 7.776e-05
*RES
1 *228:Y 227_1 0.933333
2 227_1 *229:B 0
*END
*D_NET *230 0.000108
*CONN
*I *231:Y O *D NOR2X1
*I *232:A I *L 0.0222369
*CAP
1 230_1 0.000108
*RES
1 *231:Y 230_1 2.33333
2 230_1 *232:A 0
*END
*D_NET *233 7.776e-05
*CONN
*I *234:Y O *D AND2X2
*I *235:B I *L 0.0227534
*CAP
1 233_1 7.776e-05
*RES
1 *234:Y 233_1 0.933333
2 233_1 *235:B 0
*END
*D_NET *236 5.376e-05
*CONN
*I *237:Y O *D NOR2X1
*I *238:A I *L 0.0222369
*CAP
1 236_1 5.376e-05
*RES
1 *237:Y 236_1 1.49333
2 236_1 *238:A 0
*END
*D_NET *239 9.456e-05
*CONN
*I *240:Y O *D AND2X2
*I *241:B I *L 0.0227534
*CAP
1 239_1 9.456e-05
*RES
1 *240:Y 239_1 1.96
2 239_1 *241:B 0
*END
*D_NET *242 3.36e-05
*CONN
*I *243:Y O *D NOR2X1
*I *244:A I *L 0.0222369
*CAP
1 242_1 3.36e-05
*RES
1 *243:Y 242_1 0.933333
2 242_1 *244:A 0
*END
*D_NET *245 9.888e-05
*CONN
*I *246:Y O *D AND2X2
*I *247:B I *L 0.0227534
*CAP
1 245_1 9.888e-05
*RES
1 *246:Y 245_1 1.94667
2 245_1 *247:B 0
*END
*D_NET *248 0.00015216
*CONN
*I *249:Y O *D NOR2X1
*I *250:A I *L 0.0222369
*CAP
1 248_1 0.00015216
*RES
1 *249:Y 248_1 2.33333
2 248_1 *250:A 0
*END
*D_NET *251 5.76e-05
*CONN
*I *252:Y O *D AND2X2
*I *253:B I *L 0.0227534
*CAP
1 251_1 5.76e-05
*RES
1 *252:Y 251_1 0.373333
2 251_1 *253:B 0
*END
*D_NET *254 0.00011136
*CONN
*I *255:Y O *D NOR2X1
*I *256:A I *L 0.0222369
*CAP
1 254_1 0.00011136
*RES
1 *255:Y 254_1 1.86667
2 254_1 *256:A 0
*END
*D_NET *257 5.76e-05
*CONN
*I *258:Y O *D AND2X2
*I *259:B I *L 0.0227534
*CAP
1 257_1 5.76e-05
*RES
1 *258:Y 257_1 0.373333
2 257_1 *259:B 0
*END
*D_NET *260 7.776e-05
*CONN
*I *261:Y O *D INVX1
*I *262:B I *L 0.0180112
*CAP
1 260_1 7.776e-05
*RES
1 *261:Y 260_1 0.933333
2 260_1 *262:B 0
*END
*D_NET *263 5.76e-05
*CONN
*I *264:Y O *D INVX1
*I *265:A I *L 0.0177118
*CAP
1 263_1 5.76e-05
*RES
1 *264:Y 263_1 0.373333
2 263_1 *265:A 0
*END
*D_NET *266 0.0001608
*CONN
*I *267:Y O *D NAND2X1
*I *268:B I *L 0.0180112
*CAP
1 266_1 0.0001608
*RES
1 *267:Y 266_1 1.96
2 266_1 *268:B 0
*END
*D_NET *269 8.64e-05
*CONN
*I *270:Y O *D INVX1
*I *271:A I *L 0.0177118
*CAP
1 269_1 8.64e-05
*RES
1 *270:Y 269_1 0.56
2 269_1 *271:A 0
*END
*D_NET *272 0.0001584
*CONN
*I *273:Y O *D NAND2X1
*I *274:B I *L 0.0180112
*CAP
1 272_1 0.0001584
*RES
1 *273:Y 272_1 1.02667
2 272_1 *274:B 0
*END
*D_NET *275 0.0002448
*CONN
*I *276:Y O *D NAND2X1
*I *277:A I *L 0.0134094
*CAP
1 275_1 0.0002448
*RES
1 *276:Y 275_1 1.58667
2 275_1 *277:A 0
*END
*D_NET *278 5.76e-05
*CONN
*I *279:Y O *D INVX1
*I *280:A I *L 0.0177118
*CAP
1 278_1 5.76e-05
*RES
1 *279:Y 278_1 0.373333
2 278_1 *280:A 0
*END
*D_NET *281 0.000144
*CONN
*I *282:Y O *D AND2X2
*I *283:B I *L 0.0180112
*CAP
1 281_1 0.000144
*RES
1 *282:Y 281_1 0.933333
2 281_1 *283:B 0
*END
*D_NET *284 0.00016968
*CONN
*I *285:Y O *D NAND2X1
*I *286:B I *L 0.0180112
*CAP
1 284_1 0.00016968
*RES
1 *285:Y 284_1 2.38
2 284_1 *286:B 0
*END
*D_NET *287 5.76e-05
*CONN
*I *288:Y O *D INVX1
*I *289:A I *L 0.0177118
*CAP
1 287_1 5.76e-05
*RES
1 *288:Y 287_1 0.373333
2 287_1 *289:A 0
*END
*D_NET *290 0.00028824
*CONN
*I *291:Y O *D NAND2X1
*I *292:B I *L 0.0180112
*CAP
1 290_1 0.00028824
*RES
1 *291:Y 290_1 3.78
2 290_1 *292:B 0
*END
